Circuit: * C:\Users\sedur\Documents\EAGLE\projects\DigitalMixer\CV circuits.asc

Instance "m:u3:4": Length shorter than recommended for a level 2 MOSFET.
Instance "m:u3:3": Length shorter than recommended for a level 2 MOSFET.
Instance "m:u3:2": Length shorter than recommended for a level 2 MOSFET.
Instance "m:u3:1": Length shorter than recommended for a level 2 MOSFET.
Direct Newton iteration for .op point succeeded.


Measurement "oc" FAIL'ed


Date: Mon Dec 03 21:50:30 2018
Total elapsed time: 0.064 seconds.

tnom = 27
temp = 27
method = trap
totiter = 13
traniter = 0
tranpoints = 0
accept = 0
rejected = 0
matrix size = 55
fillins = 13
solver = Normal
Matrix Compiler1:     206 opcodes
Matrix Compiler2: 5.19 KB object code size
