Circuit: * C:\Users\sedur\Documents\EAGLE\projects\DigitalMixer\output differential to single circuit model.asc

Instance "m:u3:4": Length shorter than recommended for a level 2 MOSFET.
Instance "m:u3:3": Length shorter than recommended for a level 2 MOSFET.
Instance "m:u3:2": Length shorter than recommended for a level 2 MOSFET.
Instance "m:u3:1": Length shorter than recommended for a level 2 MOSFET.
Direct Newton iteration for .op point succeeded.



Date: Sun Dec 02 20:42:10 2018
Total elapsed time: 0.081 seconds.

tnom = 27
temp = 27
method = modified trap
totiter = 2123
traniter = 2110
tranpoints = 1056
accept = 1054
rejected = 2
matrix size = 58
fillins = 31
solver = Normal
Matrix Compiler1: 5.14 KB object code size  0.9/0.4/[0.3]
Matrix Compiler2: 5.84 KB object code size  0.4/0.9/[0.2]

